opendss/seccionadoras_mt.dss
new line.SC_5253992 phases=1 bus1=78864585002188.1 bus2=78864585002188B.1 switch=y r1=1e-4 x1=1e-4 length=0.001 units=km
new line.SC_5270533 phases=3 bus1=80435405001990.1.2.3 bus2=80435405001990B.1.2.3 switch=y r1=1e-4 x1=1e-4 length=0.001 units=km
new line.SC_5270534 phases=3 bus1=80436615001990.1.2.3 bus2=80436615001990B.1.2.3 switch=y r1=1e-4 x1=1e-4 length=0.001 units=km
new line.SC_5270535 phases=3 bus1=80437575001990.1.2.3 bus2=80437575001990B.1.2.3 switch=y r1=1e-4 x1=1e-4 length=0.001 units=km
new line.SC_5270536 phases=3 bus1=80436175001990.1.2.3 bus2=80436175001990B.1.2.3 switch=y r1=1e-4 x1=1e-4 length=0.001 units=km
new line.SC_5270537 phases=3 bus1=80438995001990.1.2.3 bus2=80438995001990B.1.2.3 switch=y r1=1e-4 x1=1e-4 length=0.001 units=km
new line.SC_5270549 phases=3 bus1=80433815001990.1.2.3 bus2=80433815001990B.1.2.3 switch=y r1=1e-4 x1=1e-4 length=0.001 units=km
new line.SC_5270550 phases=3 bus1=80434025001990.1.2.3 bus2=80434025001990B.1.2.3 switch=y r1=1e-4 x1=1e-4 length=0.001 units=km
new line.SC_5270551 phases=3 bus1=80434065001990.1.2.3 bus2=80434065001990B.1.2.3 switch=y r1=1e-4 x1=1e-4 length=0.001 units=km
new line.SC_5270552 phases=3 bus1=80434135001990.1.2.3 bus2=80434135001990B.1.2.3 switch=y r1=1e-4 x1=1e-4 length=0.001 units=km
new line.SC_5270553 phases=3 bus1=80434435001990.1.2.3 bus2=80434435001990B.1.2.3 switch=y r1=1e-4 x1=1e-4 length=0.001 units=km
new line.SC_5270554 phases=3 bus1=80436565001990.1.2.3 bus2=80436565001990B.1.2.3 switch=y r1=1e-4 x1=1e-4 length=0.001 units=km
new line.SC_5270555 phases=3 bus1=80437635001990.1.2.3 bus2=80437635001990B.1.2.3 switch=y r1=1e-4 x1=1e-4 length=0.001 units=km
new line.SC_5270558 phases=3 bus1=80437805001990.1.2.3 bus2=80437805001990B.1.2.3 switch=y r1=1e-4 x1=1e-4 length=0.001 units=km
new line.SC_5270559 phases=3 bus1=80437185001990.1.2.3 bus2=80437185001990B.1.2.3 switch=y r1=1e-4 x1=1e-4 length=0.001 units=km
new line.SC_5270560 phases=3 bus1=80435985001990.1.2.3 bus2=80435985001990B.1.2.3 switch=y r1=1e-4 x1=1e-4 length=0.001 units=km
new line.SC_5270602 phases=3 bus1=80443805001991.1.2.3 bus2=80443805001991B.1.2.3 switch=y r1=1e-4 x1=1e-4 length=0.001 units=km
new line.SC_5270603 phases=3 bus1=80443705001991.1.2.3 bus2=80443705001991B.1.2.3 switch=y r1=1e-4 x1=1e-4 length=0.001 units=km
new line.SC_5270604 phases=3 bus1=80445705001991.1.2.3 bus2=80445705001991B.1.2.3 switch=y r1=1e-4 x1=1e-4 length=0.001 units=km
new line.SC_5270605 phases=3 bus1=80445735001991.1.2.3 bus2=80445735001991B.1.2.3 switch=y r1=1e-4 x1=1e-4 length=0.001 units=km
new line.SC_5270606 phases=3 bus1=80446185001991.1.2.3 bus2=80446185001991B.1.2.3 switch=y r1=1e-4 x1=1e-4 length=0.001 units=km
new line.SC_5270607 phases=3 bus1=80446725001991.1.2.3 bus2=80446725001991B.1.2.3 switch=y r1=1e-4 x1=1e-4 length=0.001 units=km
new line.SC_5270608 phases=3 bus1=80446675001991.1.2.3 bus2=80446675001991B.1.2.3 switch=y r1=1e-4 x1=1e-4 length=0.001 units=km
new line.SC_5270609 phases=3 bus1=80446685001991.1.2.3 bus2=80446685001991B.1.2.3 switch=y r1=1e-4 x1=1e-4 length=0.001 units=km
new line.SC_5270611 phases=3 bus1=80446655001991.1.2.3 bus2=80446655001991B.1.2.3 switch=y r1=1e-4 x1=1e-4 length=0.001 units=km
new line.SC_5270612 phases=3 bus1=80444625001991.1.2.3 bus2=80444625001991B.1.2.3 switch=y r1=1e-4 x1=1e-4 length=0.001 units=km
new line.SC_5270613 phases=3 bus1=80444545001991.1.2.3 bus2=80444545001991B.1.2.3 switch=y r1=1e-4 x1=1e-4 length=0.001 units=km
open line.SC_5270613 1
new line.SC_5270614 phases=3 bus1=80445665001994.1.2.3 bus2=80445665001994B.1.2.3 switch=y r1=1e-4 x1=1e-4 length=0.001 units=km
new line.SC_5270615 phases=3 bus1=80445625001991.1.2.3 bus2=80445625001991B.1.2.3 switch=y r1=1e-4 x1=1e-4 length=0.001 units=km
new line.SC_5270618 phases=3 bus1=80445235001991.1.2.3 bus2=80445235001991B.1.2.3 switch=y r1=1e-4 x1=1e-4 length=0.001 units=km
new line.SC_5270619 phases=3 bus1=80446785001991.1.2.3 bus2=80446785001991B.1.2.3 switch=y r1=1e-4 x1=1e-4 length=0.001 units=km
open line.SC_5270619 1
new line.SC_5270621 phases=3 bus1=80447545001991.1.2.3 bus2=80447545001991B.1.2.3 switch=y r1=1e-4 x1=1e-4 length=0.001 units=km
new line.SC_5270668 phases=3 bus1=80442605001991.1.2.3 bus2=80442605001991B.1.2.3 switch=y r1=1e-4 x1=1e-4 length=0.001 units=km
new line.SC_5270669 phases=3 bus1=80440675001991.1.2.3 bus2=80440675001991B.1.2.3 switch=y r1=1e-4 x1=1e-4 length=0.001 units=km
new line.SC_5270670 phases=3 bus1=80443065001991.1.2.3 bus2=80443065001991B.1.2.3 switch=y r1=1e-4 x1=1e-4 length=0.001 units=km
new line.SC_5270671 phases=3 bus1=80443725001991.1.2.3 bus2=80443725001991B.1.2.3 switch=y r1=1e-4 x1=1e-4 length=0.001 units=km
new line.SC_5270672 phases=3 bus1=80443775001991.1.2.3 bus2=80443775001991B.1.2.3 switch=y r1=1e-4 x1=1e-4 length=0.001 units=km
new line.SC_5270673 phases=3 bus1=80441195001991.1.2.3 bus2=80441195001991B.1.2.3 switch=y r1=1e-4 x1=1e-4 length=0.001 units=km
new line.SC_5270674 phases=3 bus1=80440945008500.1.2.3 bus2=80440945008500B.1.2.3 switch=y r1=1e-4 x1=1e-4 length=0.001 units=km
new line.SC_5270675 phases=3 bus1=80441505001991.1.2.3 bus2=80441505001991B.1.2.3 switch=y r1=1e-4 x1=1e-4 length=0.001 units=km
new line.SC_5270676 phases=3 bus1=80441525001991.1.2.3 bus2=80441525001991B.1.2.3 switch=y r1=1e-4 x1=1e-4 length=0.001 units=km
new line.SC_5270677 phases=3 bus1=80442015001991.1.2.3 bus2=80442015001991B.1.2.3 switch=y r1=1e-4 x1=1e-4 length=0.001 units=km
new line.SC_5270694 phases=3 bus1=80442025001991.1.2.3 bus2=80442025001991B.1.2.3 switch=y r1=1e-4 x1=1e-4 length=0.001 units=km
new line.SC_5270695 phases=3 bus1=80445485001991.1.2.3 bus2=80445485001991B.1.2.3 switch=y r1=1e-4 x1=1e-4 length=0.001 units=km
new line.SC_5270696 phases=3 bus1=80446285001991.1.2.3 bus2=80446285001991B.1.2.3 switch=y r1=1e-4 x1=1e-4 length=0.001 units=km
new line.SC_5270697 phases=3 bus1=80446305001991.1.2.3 bus2=80446305001991B.1.2.3 switch=y r1=1e-4 x1=1e-4 length=0.001 units=km
new line.SC_5270698 phases=3 bus1=80446395001991.1.2.3 bus2=80446395001991B.1.2.3 switch=y r1=1e-4 x1=1e-4 length=0.001 units=km
new line.SC_5270699 phases=3 bus1=80446055001991.1.2.3 bus2=80446055001991B.1.2.3 switch=y r1=1e-4 x1=1e-4 length=0.001 units=km
new line.SC_5270701 phases=3 bus1=80444365001991.1.2.3 bus2=80444365001991B.1.2.3 switch=y r1=1e-4 x1=1e-4 length=0.001 units=km
new line.SC_5270702 phases=3 bus1=80445715001991.1.2.3 bus2=80445715001991B.1.2.3 switch=y r1=1e-4 x1=1e-4 length=0.001 units=km
new line.SC_5270703 phases=3 bus1=80446165001991.1.2.3 bus2=80446165001991B.1.2.3 switch=y r1=1e-4 x1=1e-4 length=0.001 units=km
new line.SC_5270704 phases=3 bus1=80446325001991.1.2.3 bus2=80446325001991B.1.2.3 switch=y r1=1e-4 x1=1e-4 length=0.001 units=km
new line.SC_5270705 phases=3 bus1=80444325001991.1.2.3 bus2=80444325001991B.1.2.3 switch=y r1=1e-4 x1=1e-4 length=0.001 units=km
new line.SC_5270706 phases=3 bus1=80446935001991.1.2.3 bus2=80446935001991B.1.2.3 switch=y r1=1e-4 x1=1e-4 length=0.001 units=km
new line.SC_5270708 phases=3 bus1=80445615001991.1.2.3 bus2=80445615001991B.1.2.3 switch=y r1=1e-4 x1=1e-4 length=0.001 units=km
new line.SC_5270709 phases=3 bus1=80446695001991.1.2.3 bus2=80446695001991B.1.2.3 switch=y r1=1e-4 x1=1e-4 length=0.001 units=km
new line.SC_5270710 phases=3 bus1=80447065001991.1.2.3 bus2=80447065001991B.1.2.3 switch=y r1=1e-4 x1=1e-4 length=0.001 units=km
new line.SC_5270711 phases=3 bus1=80447305001991.1.2.3 bus2=80447305001991B.1.2.3 switch=y r1=1e-4 x1=1e-4 length=0.001 units=km
new line.SC_5270712 phases=3 bus1=80447085001991.1.2.3 bus2=80447085001991B.1.2.3 switch=y r1=1e-4 x1=1e-4 length=0.001 units=km
new line.SC_5270713 phases=3 bus1=80447335001991.1.2.3 bus2=80447335001991B.1.2.3 switch=y r1=1e-4 x1=1e-4 length=0.001 units=km
new line.SC_5270714 phases=3 bus1=80447455001991.1.2.3 bus2=80447455001991B.1.2.3 switch=y r1=1e-4 x1=1e-4 length=0.001 units=km
new line.SC_5270715 phases=3 bus1=80447575001991.1.2.3 bus2=80447575001991B.1.2.3 switch=y r1=1e-4 x1=1e-4 length=0.001 units=km
new line.SC_5270716 phases=3 bus1=80446575001991.1.2.3 bus2=80446575001991B.1.2.3 switch=y r1=1e-4 x1=1e-4 length=0.001 units=km
new line.SC_5270770 phases=3 bus1=80450975002412.1.2.3 bus2=80450975002412B.1.2.3 switch=y r1=1e-4 x1=1e-4 length=0.001 units=km
new line.SC_5270771 phases=3 bus1=80450835001992.1.2.3 bus2=80450835001992B.1.2.3 switch=y r1=1e-4 x1=1e-4 length=0.001 units=km
new line.SC_5270772 phases=3 bus1=80458215002412.1.2.3 bus2=80458215002412B.1.2.3 switch=y r1=1e-4 x1=1e-4 length=0.001 units=km
new line.SC_5270773 phases=3 bus1=80454115001992.1.2.3 bus2=80454115001992B.1.2.3 switch=y r1=1e-4 x1=1e-4 length=0.001 units=km
new line.SC_5270776 phases=3 bus1=80465415001992.1.2.3 bus2=80465415001992B.1.2.3 switch=y r1=1e-4 x1=1e-4 length=0.001 units=km
new line.SC_5270777 phases=3 bus1=80465425001992.1.2.3 bus2=80465425001992B.1.2.3 switch=y r1=1e-4 x1=1e-4 length=0.001 units=km
new line.SC_5270814 phases=3 bus1=80449465002412.1.2.3 bus2=80449465002412B.1.2.3 switch=y r1=1e-4 x1=1e-4 length=0.001 units=km
new line.SC_5270819 phases=3 bus1=80448495002412.1.2.3 bus2=80448495002412B.1.2.3 switch=y r1=1e-4 x1=1e-4 length=0.001 units=km
new line.SC_5270823 phases=3 bus1=80457915002412.1.2.3 bus2=80457915002412B.1.2.3 switch=y r1=1e-4 x1=1e-4 length=0.001 units=km
new line.SC_5270824 phases=3 bus1=80457975002412.1.2.3 bus2=80457975002412B.1.2.3 switch=y r1=1e-4 x1=1e-4 length=0.001 units=km
new line.SC_5270825 phases=3 bus1=80458085002412.1.2.3 bus2=80458085002412B.1.2.3 switch=y r1=1e-4 x1=1e-4 length=0.001 units=km
new line.SC_5270826 phases=3 bus1=80449875002412.1.2.3 bus2=80449875002412B.1.2.3 switch=y r1=1e-4 x1=1e-4 length=0.001 units=km
new line.SC_5270828 phases=3 bus1=80457645002412.1.2.3 bus2=80457645002412B.1.2.3 switch=y r1=1e-4 x1=1e-4 length=0.001 units=km
new line.SC_5270833 phases=3 bus1=80453245001992.1.2.3 bus2=80453245001992B.1.2.3 switch=y r1=1e-4 x1=1e-4 length=0.001 units=km
new line.SC_5270834 phases=3 bus1=80453775001992.1.2.3 bus2=80453775001992B.1.2.3 switch=y r1=1e-4 x1=1e-4 length=0.001 units=km
new line.SC_5270840 phases=3 bus1=80463445001992.1.2.3 bus2=80463445001992B.1.2.3 switch=y r1=1e-4 x1=1e-4 length=0.001 units=km
new line.SC_5270842 phases=3 bus1=80464225001992.1.2.3 bus2=80464225001992B.1.2.3 switch=y r1=1e-4 x1=1e-4 length=0.001 units=km
new line.SC_5270843 phases=3 bus1=80464235001992.1.2.3 bus2=80464235001992B.1.2.3 switch=y r1=1e-4 x1=1e-4 length=0.001 units=km
new line.SC_5270844 phases=3 bus1=80465575001992.1.2.3 bus2=80465575001992B.1.2.3 switch=y r1=1e-4 x1=1e-4 length=0.001 units=km
new line.SC_5270845 phases=3 bus1=80465625001992.1.2.3 bus2=80465625001992B.1.2.3 switch=y r1=1e-4 x1=1e-4 length=0.001 units=km
new line.SC_5270846 phases=3 bus1=80465455001992.1.2.3 bus2=80465455001992B.1.2.3 switch=y r1=1e-4 x1=1e-4 length=0.001 units=km
new line.SC_5270847 phases=3 bus1=80458305002412.1.2.3 bus2=80458305002412B.1.2.3 switch=y r1=1e-4 x1=1e-4 length=0.001 units=km
new line.SC_5270851 phases=3 bus1=80459835001992.1.2.3 bus2=80459835001992B.1.2.3 switch=y r1=1e-4 x1=1e-4 length=0.001 units=km
new line.SC_5270852 phases=3 bus1=80461825001992.1.2.3 bus2=80461825001992B.1.2.3 switch=y r1=1e-4 x1=1e-4 length=0.001 units=km
new line.SC_5270853 phases=3 bus1=80461835001992.1.2.3 bus2=80461835001992B.1.2.3 switch=y r1=1e-4 x1=1e-4 length=0.001 units=km
new line.SC_5270854 phases=3 bus1=80460965002412.1.2.3 bus2=80460965002412B.1.2.3 switch=y r1=1e-4 x1=1e-4 length=0.001 units=km
new line.SC_5270856 phases=3 bus1=80458675002412.1.2.3 bus2=80458675002412B.1.2.3 switch=y r1=1e-4 x1=1e-4 length=0.001 units=km
new line.SC_5270860 phases=3 bus1=80458175002412.1.2.3 bus2=80458175002412B.1.2.3 switch=y r1=1e-4 x1=1e-4 length=0.001 units=km
new line.SC_5270992 phases=3 bus1=80471705001993.1.2.3 bus2=80471705001993B.1.2.3 switch=y r1=1e-4 x1=1e-4 length=0.001 units=km
new line.SC_5270993 phases=3 bus1=80465755001993.1.2.3 bus2=80465755001993B.1.2.3 switch=y r1=1e-4 x1=1e-4 length=0.001 units=km
new line.SC_5270994 phases=3 bus1=80468755001993.1.2.3 bus2=80468755001993B.1.2.3 switch=y r1=1e-4 x1=1e-4 length=0.001 units=km
new line.SC_5271000 phases=3 bus1=80467825001993.1.2.3 bus2=80467825001993B.1.2.3 switch=y r1=1e-4 x1=1e-4 length=0.001 units=km
new line.SC_5271001 phases=3 bus1=80468355001993.1.2.3 bus2=80468355001993B.1.2.3 switch=y r1=1e-4 x1=1e-4 length=0.001 units=km
new line.SC_5271002 phases=3 bus1=80467885001993.1.2.3 bus2=80467885001993B.1.2.3 switch=y r1=1e-4 x1=1e-4 length=0.001 units=km
new line.SC_5271032 phases=3 bus1=80471855001993.1.2.3 bus2=80471855001993B.1.2.3 switch=y r1=1e-4 x1=1e-4 length=0.001 units=km
new line.SC_5271033 phases=3 bus1=80471685001993.1.2.3 bus2=80471685001993B.1.2.3 switch=y r1=1e-4 x1=1e-4 length=0.001 units=km
new line.SC_5271034 phases=3 bus1=80471545001993.1.2.3 bus2=80471545001993B.1.2.3 switch=y r1=1e-4 x1=1e-4 length=0.001 units=km
new line.SC_5271035 phases=3 bus1=80469005001993.1.2.3 bus2=80469005001993B.1.2.3 switch=y r1=1e-4 x1=1e-4 length=0.001 units=km
new line.SC_5271036 phases=3 bus1=80469625001993.1.2.3 bus2=80469625001993B.1.2.3 switch=y r1=1e-4 x1=1e-4 length=0.001 units=km
new line.SC_5271037 phases=3 bus1=80469705007257.1.2.3 bus2=80469705007257B.1.2.3 switch=y r1=1e-4 x1=1e-4 length=0.001 units=km
new line.SC_5271065 phases=3 bus1=80474025001994.1.2.3 bus2=80474025001994B.1.2.3 switch=y r1=1e-4 x1=1e-4 length=0.001 units=km
new line.SC_5271066 phases=3 bus1=80473265002410.1.2.3 bus2=80473265002410B.1.2.3 switch=y r1=1e-4 x1=1e-4 length=0.001 units=km
new line.SC_5271067 phases=3 bus1=80472765002410.1.2.3 bus2=80472765002410B.1.2.3 switch=y r1=1e-4 x1=1e-4 length=0.001 units=km
new line.SC_5271069 phases=3 bus1=80476575001991.1.2.3 bus2=80476575001991B.1.2.3 switch=y r1=1e-4 x1=1e-4 length=0.001 units=km
new line.SC_5271070 phases=3 bus1=80475285001994.1.2.3 bus2=80475285001994B.1.2.3 switch=y r1=1e-4 x1=1e-4 length=0.001 units=km
new line.SC_5271074 phases=3 bus1=80477045001991.1.2.3 bus2=80477045001991B.1.2.3 switch=y r1=1e-4 x1=1e-4 length=0.001 units=km
new line.SC_5271075 phases=3 bus1=80476725001991.1.2.3 bus2=80476725001991B.1.2.3 switch=y r1=1e-4 x1=1e-4 length=0.001 units=km
new line.SC_5271076 phases=3 bus1=80476965001991.1.2.3 bus2=80476965001991B.1.2.3 switch=y r1=1e-4 x1=1e-4 length=0.001 units=km
new line.SC_5271136 phases=3 bus1=80474115001994.1.2.3 bus2=80474115001994B.1.2.3 switch=y r1=1e-4 x1=1e-4 length=0.001 units=km
new line.SC_5271139 phases=3 bus1=80474515002410.1.2.3 bus2=80474515002410B.1.2.3 switch=y r1=1e-4 x1=1e-4 length=0.001 units=km
new line.SC_5271140 phases=3 bus1=80474545002410.1.2.3 bus2=80474545002410B.1.2.3 switch=y r1=1e-4 x1=1e-4 length=0.001 units=km
new line.SC_5271142 phases=3 bus1=80473585001994.1.2.3 bus2=80473585001994B.1.2.3 switch=y r1=1e-4 x1=1e-4 length=0.001 units=km
new line.SC_5271143 phases=3 bus1=80473605001994.1.2.3 bus2=80473605001994B.1.2.3 switch=y r1=1e-4 x1=1e-4 length=0.001 units=km
new line.SC_5271147 phases=3 bus1=80475805001991.1.2.3 bus2=80475805001991B.1.2.3 switch=y r1=1e-4 x1=1e-4 length=0.001 units=km
new line.SC_5271148 phases=3 bus1=80475865001991.1.2.3 bus2=80475865001991B.1.2.3 switch=y r1=1e-4 x1=1e-4 length=0.001 units=km
new line.SC_5271149 phases=3 bus1=80475375001991.1.2.3 bus2=80475375001991B.1.2.3 switch=y r1=1e-4 x1=1e-4 length=0.001 units=km
new line.SC_5271151 phases=3 bus1=80474725001994.1.2.3 bus2=80474725001994B.1.2.3 switch=y r1=1e-4 x1=1e-4 length=0.001 units=km
new line.SC_5271157 phases=3 bus1=80475465001991.1.2.3 bus2=80475465001991B.1.2.3 switch=y r1=1e-4 x1=1e-4 length=0.001 units=km
new line.SC_5271160 phases=3 bus1=80476755001991.1.2.3 bus2=80476755001991B.1.2.3 switch=y r1=1e-4 x1=1e-4 length=0.001 units=km
new line.SC_5271161 phases=3 bus1=80477035001991.1.2.3 bus2=80477035001991B.1.2.3 switch=y r1=1e-4 x1=1e-4 length=0.001 units=km
new line.SC_5271162 phases=3 bus1=80478015001994.1.2.3 bus2=80478015001994B.1.2.3 switch=y r1=1e-4 x1=1e-4 length=0.001 units=km
new line.SC_5271164 phases=3 bus1=80476945001991.1.2.3 bus2=80476945001991B.1.2.3 switch=y r1=1e-4 x1=1e-4 length=0.001 units=km
new line.SC_5271165 phases=3 bus1=80477055001991.1.2.3 bus2=80477055001991B.1.2.3 switch=y r1=1e-4 x1=1e-4 length=0.001 units=km
new line.SC_5271166 phases=3 bus1=80478355001991.1.2.3 bus2=80478355001991B.1.2.3 switch=y r1=1e-4 x1=1e-4 length=0.001 units=km
new line.SC_5271167 phases=3 bus1=80478395001991.1.2.3 bus2=80478395001991B.1.2.3 switch=y r1=1e-4 x1=1e-4 length=0.001 units=km
new line.SC_5271246 phases=3 bus1=80482865001995.1.2.3 bus2=80482865001995B.1.2.3 switch=y r1=1e-4 x1=1e-4 length=0.001 units=km
new line.SC_5271247 phases=3 bus1=80479595001995.1.2.3 bus2=80479595001995B.1.2.3 switch=y r1=1e-4 x1=1e-4 length=0.001 units=km
new line.SC_5271248 phases=3 bus1=80481115001995.1.2.3 bus2=80481115001995B.1.2.3 switch=y r1=1e-4 x1=1e-4 length=0.001 units=km
new line.SC_5271249 phases=3 bus1=80480865008497.1.2.3 bus2=80480865008497B.1.2.3 switch=y r1=1e-4 x1=1e-4 length=0.001 units=km
new line.SC_5271250 phases=3 bus1=80480525001995.1.2.3 bus2=80480525001995B.1.2.3 switch=y r1=1e-4 x1=1e-4 length=0.001 units=km
new line.SC_5271251 phases=3 bus1=80480825001995.1.2.3 bus2=80480825001995B.1.2.3 switch=y r1=1e-4 x1=1e-4 length=0.001 units=km
open line.SC_5271251 1
new line.SC_5271252 phases=3 bus1=80484065001995.1.2.3 bus2=80484065001995B.1.2.3 switch=y r1=1e-4 x1=1e-4 length=0.001 units=km
new line.SC_5271287 phases=3 bus1=80479525001995.1.2.3 bus2=80479525001995B.1.2.3 switch=y r1=1e-4 x1=1e-4 length=0.001 units=km
new line.SC_5271289 phases=3 bus1=80480785001995.1.2.3 bus2=80480785001995B.1.2.3 switch=y r1=1e-4 x1=1e-4 length=0.001 units=km
new line.SC_5271292 phases=3 bus1=80479495001995.1.2.3 bus2=80479495001995B.1.2.3 switch=y r1=1e-4 x1=1e-4 length=0.001 units=km
new line.SC_5271293 phases=3 bus1=80483655001995.1.2.3 bus2=80483655001995B.1.2.3 switch=y r1=1e-4 x1=1e-4 length=0.001 units=km
new line.SC_5271296 phases=3 bus1=80482685001995.1.2.3 bus2=80482685001995B.1.2.3 switch=y r1=1e-4 x1=1e-4 length=0.001 units=km
new line.SC_5271333 phases=3 bus1=80487535001992.1.2.3 bus2=80487535001992B.1.2.3 switch=y r1=1e-4 x1=1e-4 length=0.001 units=km
new line.SC_5271335 phases=3 bus1=80484595001996.1.2.3 bus2=80484595001996B.1.2.3 switch=y r1=1e-4 x1=1e-4 length=0.001 units=km
new line.SC_5271337 phases=3 bus1=80453995001992.1.2.3 bus2=80453995001992B.1.2.3 switch=y r1=1e-4 x1=1e-4 length=0.001 units=km
new line.SC_5271338 phases=3 bus1=80497805001996.1.2.3 bus2=80497805001996B.1.2.3 switch=y r1=1e-4 x1=1e-4 length=0.001 units=km
new line.SC_5271339 phases=3 bus1=80488865001992.1.2.3 bus2=80488865001992B.1.2.3 switch=y r1=1e-4 x1=1e-4 length=0.001 units=km
new line.SC_5271340 phases=3 bus1=80488895001992.1.2.3 bus2=80488895001992B.1.2.3 switch=y r1=1e-4 x1=1e-4 length=0.001 units=km
new line.SC_5271341 phases=3 bus1=80499275001996.1.2.3 bus2=80499275001996B.1.2.3 switch=y r1=1e-4 x1=1e-4 length=0.001 units=km
new line.SC_5271342 phases=3 bus1=80500365001996.1.2.3 bus2=80500365001996B.1.2.3 switch=y r1=1e-4 x1=1e-4 length=0.001 units=km
new line.SC_5271343 phases=3 bus1=80500055001996.1.2.3 bus2=80500055001996B.1.2.3 switch=y r1=1e-4 x1=1e-4 length=0.001 units=km
new line.SC_5271375 phases=3 bus1=80489165001992.1.2.3 bus2=80489165001992B.1.2.3 switch=y r1=1e-4 x1=1e-4 length=0.001 units=km
new line.SC_5271376 phases=3 bus1=80489215001992.1.2.3 bus2=80489215001992B.1.2.3 switch=y r1=1e-4 x1=1e-4 length=0.001 units=km
new line.SC_5271377 phases=3 bus1=80485015001992.1.2.3 bus2=80485015001992B.1.2.3 switch=y r1=1e-4 x1=1e-4 length=0.001 units=km
new line.SC_5271379 phases=3 bus1=80492505001992.1.2.3 bus2=80492505001992B.1.2.3 switch=y r1=1e-4 x1=1e-4 length=0.001 units=km
new line.SC_5271380 phases=3 bus1=80492585001992.1.2.3 bus2=80492585001992B.1.2.3 switch=y r1=1e-4 x1=1e-4 length=0.001 units=km
new line.SC_5271381 phases=3 bus1=80492635001992.1.2.3 bus2=80492635001992B.1.2.3 switch=y r1=1e-4 x1=1e-4 length=0.001 units=km
new line.SC_5271382 phases=3 bus1=80486855001992.1.2.3 bus2=80486855001992B.1.2.3 switch=y r1=1e-4 x1=1e-4 length=0.001 units=km
new line.SC_5271384 phases=3 bus1=80486935001992.1.2.3 bus2=80486935001992B.1.2.3 switch=y r1=1e-4 x1=1e-4 length=0.001 units=km
new line.SC_5271385 phases=3 bus1=80491605001992.1.2.3 bus2=80491605001992B.1.2.3 switch=y r1=1e-4 x1=1e-4 length=0.001 units=km
new line.SC_5271386 phases=3 bus1=80491645001992.1.2.3 bus2=80491645001992B.1.2.3 switch=y r1=1e-4 x1=1e-4 length=0.001 units=km
new line.SC_5271388 phases=3 bus1=80493435001992.1.2.3 bus2=80493435001992B.1.2.3 switch=y r1=1e-4 x1=1e-4 length=0.001 units=km
new line.SC_5271389 phases=3 bus1=80498985001996.1.2.3 bus2=80498985001996B.1.2.3 switch=y r1=1e-4 x1=1e-4 length=0.001 units=km
new line.SC_5271393 phases=3 bus1=80496575001996.1.2.3 bus2=80496575001996B.1.2.3 switch=y r1=1e-4 x1=1e-4 length=0.001 units=km
new line.SC_5271394 phases=3 bus1=80488765001992.1.2.3 bus2=80488765001992B.1.2.3 switch=y r1=1e-4 x1=1e-4 length=0.001 units=km
new line.SC_5271395 phases=3 bus1=80488815001992.1.2.3 bus2=80488815001992B.1.2.3 switch=y r1=1e-4 x1=1e-4 length=0.001 units=km
new line.SC_5271396 phases=3 bus1=80495135001992.1.2.3 bus2=80495135001992B.1.2.3 switch=y r1=1e-4 x1=1e-4 length=0.001 units=km
new line.SC_5271397 phases=3 bus1=80495985001992.1.2.3 bus2=80495985001992B.1.2.3 switch=y r1=1e-4 x1=1e-4 length=0.001 units=km
new line.SC_5271399 phases=3 bus1=80497455001992.1.2.3 bus2=80497455001992B.1.2.3 switch=y r1=1e-4 x1=1e-4 length=0.001 units=km
new line.SC_5271401 phases=3 bus1=80497025001996.1.2.3 bus2=80497025001996B.1.2.3 switch=y r1=1e-4 x1=1e-4 length=0.001 units=km
new line.SC_5271402 phases=3 bus1=80495875001992.1.2.3 bus2=80495875001992B.1.2.3 switch=y r1=1e-4 x1=1e-4 length=0.001 units=km
new line.SC_5271403 phases=3 bus1=80495225001992.1.2.3 bus2=80495225001992B.1.2.3 switch=y r1=1e-4 x1=1e-4 length=0.001 units=km
new line.SC_5271404 phases=3 bus1=80488775001992.1.2.3 bus2=80488775001992B.1.2.3 switch=y r1=1e-4 x1=1e-4 length=0.001 units=km
new line.SC_5271405 phases=3 bus1=80488735001992.1.2.3 bus2=80488735001992B.1.2.3 switch=y r1=1e-4 x1=1e-4 length=0.001 units=km
new line.SC_5271406 phases=3 bus1=80497745001992.1.2.3 bus2=80497745001992B.1.2.3 switch=y r1=1e-4 x1=1e-4 length=0.001 units=km
new line.SC_5271408 phases=3 bus1=80497935001992.1.2.3 bus2=80497935001992B.1.2.3 switch=y r1=1e-4 x1=1e-4 length=0.001 units=km
new line.SC_5271511 phases=3 bus1=80500805001997.1.2.3 bus2=80500805001997B.1.2.3 switch=y r1=1e-4 x1=1e-4 length=0.001 units=km
new line.SC_5271524 phases=3 bus1=80501135001998.1.2.3 bus2=80501135001998B.1.2.3 switch=y r1=1e-4 x1=1e-4 length=0.001 units=km
new line.SC_5271525 phases=3 bus1=80508235001998.1.2.3 bus2=80508235001998B.1.2.3 switch=y r1=1e-4 x1=1e-4 length=0.001 units=km
new line.SC_5271527 phases=3 bus1=80512065007259.1.2.3 bus2=80512065007259B.1.2.3 switch=y r1=1e-4 x1=1e-4 length=0.001 units=km
new line.SC_5271530 phases=3 bus1=80512935001998.1.2.3 bus2=80512935001998B.1.2.3 switch=y r1=1e-4 x1=1e-4 length=0.001 units=km
new line.SC_5271531 phases=3 bus1=80515755001998.1.2.3 bus2=80515755001998B.1.2.3 switch=y r1=1e-4 x1=1e-4 length=0.001 units=km
new line.SC_5271574 phases=3 bus1=80504505007259.1.2.3 bus2=80504505007259B.1.2.3 switch=y r1=1e-4 x1=1e-4 length=0.001 units=km
new line.SC_5271575 phases=3 bus1=80504765007259.1.2.3 bus2=80504765007259B.1.2.3 switch=y r1=1e-4 x1=1e-4 length=0.001 units=km
new line.SC_5271580 phases=3 bus1=80506585007259.1.2.3 bus2=80506585007259B.1.2.3 switch=y r1=1e-4 x1=1e-4 length=0.001 units=km
new line.SC_5271590 phases=3 bus1=80512185001998.1.2.3 bus2=99464275001998.1.2.3 switch=y r1=1e-4 x1=1e-4 length=0.001 units=km
new line.SC_5271591 phases=3 bus1=80510815001998.1.2.3 bus2=99464325001998.1.2.3 switch=y r1=1e-4 x1=1e-4 length=0.001 units=km
new line.SC_5271597 phases=3 bus1=80512545007259.1.2.3 bus2=80512545007259B.1.2.3 switch=y r1=1e-4 x1=1e-4 length=0.001 units=km
new line.SC_5271602 phases=1 bus1=93915505007259.2 bus2=93915505007259B.2 switch=y r1=1e-4 x1=1e-4 length=0.001 units=km
new line.SC_5271608 phases=3 bus1=80519195007259.1.2.3 bus2=80519195007259B.1.2.3 switch=y r1=1e-4 x1=1e-4 length=0.001 units=km
new line.SC_5271609 phases=3 bus1=80502135007259.1.2.3 bus2=80502135007259B.1.2.3 switch=y r1=1e-4 x1=1e-4 length=0.001 units=km
new line.SC_5271610 phases=3 bus1=80513925001998.1.2.3 bus2=80513925001998B.1.2.3 switch=y r1=1e-4 x1=1e-4 length=0.001 units=km
new line.SC_5271686 phases=3 bus1=80521075002413.1.2.3 bus2=80521075002413B.1.2.3 switch=y r1=1e-4 x1=1e-4 length=0.001 units=km
new line.SC_5271687 phases=3 bus1=80526185008497.1.2.3 bus2=80526185008497B.1.2.3 switch=y r1=1e-4 x1=1e-4 length=0.001 units=km
new line.SC_5271689 phases=3 bus1=80521475002413.1.2.3 bus2=80521475002413B.1.2.3 switch=y r1=1e-4 x1=1e-4 length=0.001 units=km
new line.SC_5271693 phases=3 bus1=80483365001995.1.2.3 bus2=80483365001995B.1.2.3 switch=y r1=1e-4 x1=1e-4 length=0.001 units=km
new line.SC_5271694 phases=3 bus1=80524655002413.1.2.3 bus2=80524655002413B.1.2.3 switch=y r1=1e-4 x1=1e-4 length=0.001 units=km
new line.SC_5271770 phases=3 bus1=80524215001995.1.2.3 bus2=80524215001995B.1.2.3 switch=y r1=1e-4 x1=1e-4 length=0.001 units=km
new line.SC_5271771 phases=3 bus1=80525535001995.1.2.3 bus2=80525535001995B.1.2.3 switch=y r1=1e-4 x1=1e-4 length=0.001 units=km
new line.SC_5271779 phases=3 bus1=80480845002413.1.2.3 bus2=80480845002413B.1.2.3 switch=y r1=1e-4 x1=1e-4 length=0.001 units=km
new line.SC_5271781 phases=3 bus1=80521505002413.1.2.3 bus2=80521505002413B.1.2.3 switch=y r1=1e-4 x1=1e-4 length=0.001 units=km
new line.SC_5271789 phases=3 bus1=80522095001995.1.2.3 bus2=80522095001995B.1.2.3 switch=y r1=1e-4 x1=1e-4 length=0.001 units=km
new line.SC_5271790 phases=3 bus1=80522155001995.1.2.3 bus2=80522155001995B.1.2.3 switch=y r1=1e-4 x1=1e-4 length=0.001 units=km
new line.SC_5271793 phases=3 bus1=80522285001995.1.2.3 bus2=80522285001995B.1.2.3 switch=y r1=1e-4 x1=1e-4 length=0.001 units=km
new line.SC_5271794 phases=3 bus1=80522515001995.1.2.3 bus2=80522515001995B.1.2.3 switch=y r1=1e-4 x1=1e-4 length=0.001 units=km
new line.SC_5271795 phases=3 bus1=80522465001995.1.2.3 bus2=80522465001995B.1.2.3 switch=y r1=1e-4 x1=1e-4 length=0.001 units=km
new line.SC_5271796 phases=3 bus1=80524695002413.1.2.3 bus2=80524695002413B.1.2.3 switch=y r1=1e-4 x1=1e-4 length=0.001 units=km
new line.SC_5271797 phases=3 bus1=80524685002413.1.2.3 bus2=80524685002413B.1.2.3 switch=y r1=1e-4 x1=1e-4 length=0.001 units=km
new line.SC_5271798 phases=3 bus1=80527165002413.1.2.3 bus2=80527165002413B.1.2.3 switch=y r1=1e-4 x1=1e-4 length=0.001 units=km
new line.SC_5271799 phases=3 bus1=80527325001995.1.2.3 bus2=80527325001995B.1.2.3 switch=y r1=1e-4 x1=1e-4 length=0.001 units=km
new line.SC_5271800 phases=3 bus1=80524595001995.1.2.3 bus2=80524595001995B.1.2.3 switch=y r1=1e-4 x1=1e-4 length=0.001 units=km
new line.SC_5271801 phases=3 bus1=80526895002413.1.2.3 bus2=80526895002413B.1.2.3 switch=y r1=1e-4 x1=1e-4 length=0.001 units=km
new line.SC_5271811 phases=3 bus1=80527135002413.1.2.3 bus2=80527135002413B.1.2.3 switch=y r1=1e-4 x1=1e-4 length=0.001 units=km
new line.SC_5271901 phases=3 bus1=80530715002412.1.2.3 bus2=80530715002412B.1.2.3 switch=y r1=1e-4 x1=1e-4 length=0.001 units=km
new line.SC_5271903 phases=3 bus1=80533535002210.1.2.3 bus2=80533535002210B.1.2.3 switch=y r1=1e-4 x1=1e-4 length=0.001 units=km
new line.SC_5271904 phases=3 bus1=80537945007257.1.2.3 bus2=80537945007257B.1.2.3 switch=y r1=1e-4 x1=1e-4 length=0.001 units=km
new line.SC_5271905 phases=3 bus1=80471455001993.1.2.3 bus2=80471455001993B.1.2.3 switch=y r1=1e-4 x1=1e-4 length=0.001 units=km
new line.SC_5271907 phases=3 bus1=80535155002210.1.2.3 bus2=80535155002210B.1.2.3 switch=y r1=1e-4 x1=1e-4 length=0.001 units=km
new line.SC_5271908 phases=3 bus1=80439915002412.1.2.3 bus2=80439915002412B.1.2.3 switch=y r1=1e-4 x1=1e-4 length=0.001 units=km
new line.SC_5271945 phases=3 bus1=80530125002210.1.2.3 bus2=80530125002210B.1.2.3 switch=y r1=1e-4 x1=1e-4 length=0.001 units=km
new line.SC_5271948 phases=3 bus1=80532735002210.1.2.3 bus2=80532735002210B.1.2.3 switch=y r1=1e-4 x1=1e-4 length=0.001 units=km
new line.SC_5271949 phases=3 bus1=80533045002210.1.2.3 bus2=80533045002210B.1.2.3 switch=y r1=1e-4 x1=1e-4 length=0.001 units=km
new line.SC_5271953 phases=3 bus1=80533155002210.1.2.3 bus2=80533155002210B.1.2.3 switch=y r1=1e-4 x1=1e-4 length=0.001 units=km
new line.SC_5271954 phases=3 bus1=80533895002210.1.2.3 bus2=80533895002210B.1.2.3 switch=y r1=1e-4 x1=1e-4 length=0.001 units=km
new line.SC_5271955 phases=3 bus1=80534295002210.1.2.3 bus2=80534295002210B.1.2.3 switch=y r1=1e-4 x1=1e-4 length=0.001 units=km
new line.SC_5271957 phases=3 bus1=80535595002210.1.2.3 bus2=80535595002210B.1.2.3 switch=y r1=1e-4 x1=1e-4 length=0.001 units=km
new line.SC_5271961 phases=3 bus1=80535205002210.1.2.3 bus2=80535205002210B.1.2.3 switch=y r1=1e-4 x1=1e-4 length=0.001 units=km
open line.SC_5271961 1
new line.SC_5271962 phases=3 bus1=80535135002210.1.2.3 bus2=80535135002210B.1.2.3 switch=y r1=1e-4 x1=1e-4 length=0.001 units=km
new line.SC_5271964 phases=3 bus1=80536265002210.1.2.3 bus2=80536265002210B.1.2.3 switch=y r1=1e-4 x1=1e-4 length=0.001 units=km
new line.SC_5271965 phases=3 bus1=80535855002210.1.2.3 bus2=80535855002210B.1.2.3 switch=y r1=1e-4 x1=1e-4 length=0.001 units=km
new line.SC_5271966 phases=3 bus1=83948885007257.1.2.3 bus2=83948885007257B.1.2.3 switch=y r1=1e-4 x1=1e-4 length=0.001 units=km
new line.SC_5271972 phases=3 bus1=80539995007257.1.2.3 bus2=80539995007257B.1.2.3 switch=y r1=1e-4 x1=1e-4 length=0.001 units=km
new line.SC_5271973 phases=3 bus1=80530915002412.1.2.3 bus2=80530915002412B.1.2.3 switch=y r1=1e-4 x1=1e-4 length=0.001 units=km
new line.SC_5271974 phases=3 bus1=80536965007257.1.2.3 bus2=80536965007257B.1.2.3 switch=y r1=1e-4 x1=1e-4 length=0.001 units=km
new line.SC_5272066 phases=3 bus1=80545445008497.1.2.3 bus2=80545445008497B.1.2.3 switch=y r1=1e-4 x1=1e-4 length=0.001 units=km
new line.SC_5272067 phases=3 bus1=80544345008497.1.2.3 bus2=80544345008497B.1.2.3 switch=y r1=1e-4 x1=1e-4 length=0.001 units=km
new line.SC_5272068 phases=3 bus1=80544575008497.1.2.3 bus2=80544575008497B.1.2.3 switch=y r1=1e-4 x1=1e-4 length=0.001 units=km
new line.SC_5272069 phases=3 bus1=80541735002411.1.2.3 bus2=80541735002411B.1.2.3 switch=y r1=1e-4 x1=1e-4 length=0.001 units=km
new line.SC_5272070 phases=3 bus1=80546855008497.1.2.3 bus2=80546855008497B.1.2.3 switch=y r1=1e-4 x1=1e-4 length=0.001 units=km
new line.SC_5272072 phases=3 bus1=80545955008497.1.2.3 bus2=80545955008497B.1.2.3 switch=y r1=1e-4 x1=1e-4 length=0.001 units=km
new line.SC_5272073 phases=3 bus1=80546025008497.1.2.3 bus2=80546025008497B.1.2.3 switch=y r1=1e-4 x1=1e-4 length=0.001 units=km
new line.SC_5272074 phases=3 bus1=80543225008497.1.2.3 bus2=80543225008497B.1.2.3 switch=y r1=1e-4 x1=1e-4 length=0.001 units=km
new line.SC_5272075 phases=3 bus1=80442505001991.1.2.3 bus2=80442505001991B.1.2.3 switch=y r1=1e-4 x1=1e-4 length=0.001 units=km
new line.SC_5272078 phases=3 bus1=80546245008497.1.2.3 bus2=80546245008497B.1.2.3 switch=y r1=1e-4 x1=1e-4 length=0.001 units=km
new line.SC_5272079 phases=3 bus1=80483155001995.1.2.3 bus2=80483155001995B.1.2.3 switch=y r1=1e-4 x1=1e-4 length=0.001 units=km
new line.SC_5272080 phases=3 bus1=80445395008497.1.2.3 bus2=80445395008497B.1.2.3 switch=y r1=1e-4 x1=1e-4 length=0.001 units=km
new line.SC_5272081 phases=3 bus1=80547955008497.1.2.3 bus2=80547955008497B.1.2.3 switch=y r1=1e-4 x1=1e-4 length=0.001 units=km
new line.SC_5272159 phases=3 bus1=80543435008498.1.2.3 bus2=80543435008498B.1.2.3 switch=y r1=1e-4 x1=1e-4 length=0.001 units=km
new line.SC_5272160 phases=3 bus1=80541365008497.1.2.3 bus2=80541365008497B.1.2.3 switch=y r1=1e-4 x1=1e-4 length=0.001 units=km
new line.SC_5272162 phases=3 bus1=80543475008498.1.2.3 bus2=80543475008498B.1.2.3 switch=y r1=1e-4 x1=1e-4 length=0.001 units=km
new line.SC_5272163 phases=3 bus1=80543615008498.1.2.3 bus2=80543615008498B.1.2.3 switch=y r1=1e-4 x1=1e-4 length=0.001 units=km
new line.SC_5272164 phases=3 bus1=80541875008498.1.2.3 bus2=80541875008498B.1.2.3 switch=y r1=1e-4 x1=1e-4 length=0.001 units=km
new line.SC_5272165 phases=3 bus1=80545425008497.1.2.3 bus2=80545425008497B.1.2.3 switch=y r1=1e-4 x1=1e-4 length=0.001 units=km
new line.SC_5272167 phases=3 bus1=80542515008498.1.2.3 bus2=80542515008498B.1.2.3 switch=y r1=1e-4 x1=1e-4 length=0.001 units=km
new line.SC_5272168 phases=3 bus1=80544685008497.1.2.3 bus2=80544685008497B.1.2.3 switch=y r1=1e-4 x1=1e-4 length=0.001 units=km
new line.SC_5272169 phases=3 bus1=80545295008497.1.2.3 bus2=80545295008497B.1.2.3 switch=y r1=1e-4 x1=1e-4 length=0.001 units=km
new line.SC_5272170 phases=3 bus1=80546895008497.1.2.3 bus2=80546895008497B.1.2.3 switch=y r1=1e-4 x1=1e-4 length=0.001 units=km
new line.SC_5272171 phases=3 bus1=80547565008497.1.2.3 bus2=80547565008497B.1.2.3 switch=y r1=1e-4 x1=1e-4 length=0.001 units=km
new line.SC_5272172 phases=3 bus1=80547525008497.1.2.3 bus2=80547525008497B.1.2.3 switch=y r1=1e-4 x1=1e-4 length=0.001 units=km
new line.SC_5272173 phases=3 bus1=80547465008497.1.2.3 bus2=80547465008497B.1.2.3 switch=y r1=1e-4 x1=1e-4 length=0.001 units=km
new line.SC_5272174 phases=3 bus1=80547625008497.1.2.3 bus2=80547625008497B.1.2.3 switch=y r1=1e-4 x1=1e-4 length=0.001 units=km
new line.SC_5272175 phases=3 bus1=80546165008497.1.2.3 bus2=80546165008497B.1.2.3 switch=y r1=1e-4 x1=1e-4 length=0.001 units=km
new line.SC_5272178 phases=3 bus1=80546405008497.1.2.3 bus2=80546405008497B.1.2.3 switch=y r1=1e-4 x1=1e-4 length=0.001 units=km
new line.SC_5272179 phases=3 bus1=80546435008497.1.2.3 bus2=80546435008497B.1.2.3 switch=y r1=1e-4 x1=1e-4 length=0.001 units=km
new line.SC_5272182 phases=3 bus1=80541195008498.1.2.3 bus2=80541195008498B.1.2.3 switch=y r1=1e-4 x1=1e-4 length=0.001 units=km
new line.SC_5272200 phases=3 bus1=80546035008497.1.2.3 bus2=80546035008497B.1.2.3 switch=y r1=1e-4 x1=1e-4 length=0.001 units=km
new line.SC_5272290 phases=3 bus1=80473245002410.1.2.3 bus2=80473245002410B.1.2.3 switch=y r1=1e-4 x1=1e-4 length=0.001 units=km
new line.SC_5272291 phases=3 bus1=80550915002410.1.2.3 bus2=80550915002410B.1.2.3 switch=y r1=1e-4 x1=1e-4 length=0.001 units=km
new line.SC_5272292 phases=3 bus1=80551735002410.1.2.3 bus2=80551735002410B.1.2.3 switch=y r1=1e-4 x1=1e-4 length=0.001 units=km
new line.SC_5272293 phases=3 bus1=80550735002410.1.2.3 bus2=80550735002410B.1.2.3 switch=y r1=1e-4 x1=1e-4 length=0.001 units=km
new line.SC_5272294 phases=3 bus1=80551955002410.1.2.3 bus2=80551955002410B.1.2.3 switch=y r1=1e-4 x1=1e-4 length=0.001 units=km
new line.SC_5272296 phases=3 bus1=80550395002410.1.2.3 bus2=80550395002410B.1.2.3 switch=y r1=1e-4 x1=1e-4 length=0.001 units=km
new line.SC_5272297 phases=3 bus1=80559335002410.1.2.3 bus2=80559335002410B.1.2.3 switch=y r1=1e-4 x1=1e-4 length=0.001 units=km
new line.SC_5272301 phases=3 bus1=80560645002410.1.2.3 bus2=80560645002410B.1.2.3 switch=y r1=1e-4 x1=1e-4 length=0.001 units=km
new line.SC_5272377 phases=3 bus1=80551175002410.1.2.3 bus2=80551175002410B.1.2.3 switch=y r1=1e-4 x1=1e-4 length=0.001 units=km
new line.SC_5272378 phases=3 bus1=80551215002410.1.2.3 bus2=80551215002410B.1.2.3 switch=y r1=1e-4 x1=1e-4 length=0.001 units=km
new line.SC_5272382 phases=3 bus1=80551665002410.1.2.3 bus2=80551665002410B.1.2.3 switch=y r1=1e-4 x1=1e-4 length=0.001 units=km
new line.SC_5272383 phases=3 bus1=80552275002410.1.2.3 bus2=80552275002410B.1.2.3 switch=y r1=1e-4 x1=1e-4 length=0.001 units=km
new line.SC_5272384 phases=3 bus1=80551915002410.1.2.3 bus2=80551915002410B.1.2.3 switch=y r1=1e-4 x1=1e-4 length=0.001 units=km
new line.SC_5272385 phases=3 bus1=80551675002410.1.2.3 bus2=80551675002410B.1.2.3 switch=y r1=1e-4 x1=1e-4 length=0.001 units=km
new line.SC_5272386 phases=3 bus1=80551685002410.1.2.3 bus2=80551685002410B.1.2.3 switch=y r1=1e-4 x1=1e-4 length=0.001 units=km
new line.SC_5272387 phases=3 bus1=80551905002410.1.2.3 bus2=80551905002410B.1.2.3 switch=y r1=1e-4 x1=1e-4 length=0.001 units=km
new line.SC_5272388 phases=3 bus1=80551925002410.1.2.3 bus2=80551925002410B.1.2.3 switch=y r1=1e-4 x1=1e-4 length=0.001 units=km
new line.SC_5272389 phases=3 bus1=80552165007258.1.2.3 bus2=80552165007258B.1.2.3 switch=y r1=1e-4 x1=1e-4 length=0.001 units=km
new line.SC_5272391 phases=3 bus1=80552535007258.1.2.3 bus2=80552535007258B.1.2.3 switch=y r1=1e-4 x1=1e-4 length=0.001 units=km
new line.SC_5272392 phases=3 bus1=80550465007258.1.2.3 bus2=80550465007258B.1.2.3 switch=y r1=1e-4 x1=1e-4 length=0.001 units=km
new line.SC_5272395 phases=3 bus1=80552925007258.1.2.3 bus2=80552925007258B.1.2.3 switch=y r1=1e-4 x1=1e-4 length=0.001 units=km
new line.SC_5272396 phases=3 bus1=80552985007258.1.2.3 bus2=80552985007258B.1.2.3 switch=y r1=1e-4 x1=1e-4 length=0.001 units=km
new line.SC_5272398 phases=3 bus1=80554535002410.1.2.3 bus2=80554535002410B.1.2.3 switch=y r1=1e-4 x1=1e-4 length=0.001 units=km
new line.SC_5272400 phases=3 bus1=80555295002410.1.2.3 bus2=80555295002410B.1.2.3 switch=y r1=1e-4 x1=1e-4 length=0.001 units=km
new line.SC_5272402 phases=3 bus1=80554395002410.1.2.3 bus2=80554395002410B.1.2.3 switch=y r1=1e-4 x1=1e-4 length=0.001 units=km
new line.SC_5272403 phases=3 bus1=80555075002410.1.2.3 bus2=80555075002410B.1.2.3 switch=y r1=1e-4 x1=1e-4 length=0.001 units=km
new line.SC_5272408 phases=3 bus1=80559445002410.1.2.3 bus2=80559445002410B.1.2.3 switch=y r1=1e-4 x1=1e-4 length=0.001 units=km
new line.SC_5272412 phases=3 bus1=80556065002410.1.2.3 bus2=80556065002410B.1.2.3 switch=y r1=1e-4 x1=1e-4 length=0.001 units=km
new line.SC_5284300 phases=3 bus1=80551945002410.1.2.3 bus2=80551945002410B.1.2.3 switch=y r1=1e-4 x1=1e-4 length=0.001 units=km
new line.SC_5284303 phases=3 bus1=80473255002410.1.2.3 bus2=80473255002410B.1.2.3 switch=y r1=1e-4 x1=1e-4 length=0.001 units=km
new line.SC_5284305 phases=3 bus1=81756285002410.1.2.3 bus2=81756285002410B.1.2.3 switch=y r1=1e-4 x1=1e-4 length=0.001 units=km
new line.SC_5284306 phases=3 bus1=81756315002410.1.2.3 bus2=81756315002410B.1.2.3 switch=y r1=1e-4 x1=1e-4 length=0.001 units=km
new line.SC_5284310 phases=3 bus1=81763185002148.1.2.3 bus2=81763185002148B.1.2.3 switch=y r1=1e-4 x1=1e-4 length=0.001 units=km
new line.SC_5284312 phases=3 bus1=80555065002410.1.2.3 bus2=80555065002410B.1.2.3 switch=y r1=1e-4 x1=1e-4 length=0.001 units=km
new line.SC_5284313 phases=3 bus1=80439955002148.1.2.3 bus2=80439955002148B.1.2.3 switch=y r1=1e-4 x1=1e-4 length=0.001 units=km
new line.SC_5284358 phases=3 bus1=81754435007258.1.2.3 bus2=81754435007258B.1.2.3 switch=y r1=1e-4 x1=1e-4 length=0.001 units=km
new line.SC_5284360 phases=3 bus1=81753815007258.1.2.3 bus2=81753815007258B.1.2.3 switch=y r1=1e-4 x1=1e-4 length=0.001 units=km
new line.SC_5284361 phases=3 bus1=80433905002148.1.2.3 bus2=80433905002148B.1.2.3 switch=y r1=1e-4 x1=1e-4 length=0.001 units=km
new line.SC_5284362 phases=3 bus1=81753515007258.1.2.3 bus2=81753515007258B.1.2.3 switch=y r1=1e-4 x1=1e-4 length=0.001 units=km
new line.SC_5284363 phases=3 bus1=81757245002410.1.2.3 bus2=81757245002410B.1.2.3 switch=y r1=1e-4 x1=1e-4 length=0.001 units=km
new line.SC_5284364 phases=3 bus1=81757355002410.1.2.3 bus2=81757355002410B.1.2.3 switch=y r1=1e-4 x1=1e-4 length=0.001 units=km
new line.SC_5284365 phases=3 bus1=81756165002410.1.2.3 bus2=81756165002410B.1.2.3 switch=y r1=1e-4 x1=1e-4 length=0.001 units=km
new line.SC_5284366 phases=3 bus1=81756225002410.1.2.3 bus2=81756225002410B.1.2.3 switch=y r1=1e-4 x1=1e-4 length=0.001 units=km
new line.SC_5284367 phases=3 bus1=81756245002410.1.2.3 bus2=81756245002410B.1.2.3 switch=y r1=1e-4 x1=1e-4 length=0.001 units=km
new line.SC_5284373 phases=3 bus1=81763055002148.1.2.3 bus2=81763055002148B.1.2.3 switch=y r1=1e-4 x1=1e-4 length=0.001 units=km
new line.SC_5284376 phases=3 bus1=81758025002148.1.2.3 bus2=81758025002148B.1.2.3 switch=y r1=1e-4 x1=1e-4 length=0.001 units=km
new line.SC_5284378 phases=3 bus1=81756035002410.1.2.3 bus2=81756035002410B.1.2.3 switch=y r1=1e-4 x1=1e-4 length=0.001 units=km
new line.SC_5284379 phases=3 bus1=81756355002410.1.2.3 bus2=81756355002410B.1.2.3 switch=y r1=1e-4 x1=1e-4 length=0.001 units=km
new line.SC_5284381 phases=3 bus1=81756065002410.1.2.3 bus2=81756065002410B.1.2.3 switch=y r1=1e-4 x1=1e-4 length=0.001 units=km
new line.SC_5284383 phases=3 bus1=81759185007258.1.2.3 bus2=81759185007258B.1.2.3 switch=y r1=1e-4 x1=1e-4 length=0.001 units=km
new line.SC_5284384 phases=3 bus1=81759275007258.1.2.3 bus2=81759275007258B.1.2.3 switch=y r1=1e-4 x1=1e-4 length=0.001 units=km
new line.SC_5284385 phases=3 bus1=81763245002148.1.2.3 bus2=81763245002148B.1.2.3 switch=y r1=1e-4 x1=1e-4 length=0.001 units=km
new line.SC_5284387 phases=3 bus1=81763505002148.1.2.3 bus2=81763505002148B.1.2.3 switch=y r1=1e-4 x1=1e-4 length=0.001 units=km
new line.SC_5284389 phases=3 bus1=81757535002148.1.2.3 bus2=81757535002148B.1.2.3 switch=y r1=1e-4 x1=1e-4 length=0.001 units=km
new line.SC_5284391 phases=3 bus1=81757765002148.1.2.3 bus2=81757765002148B.1.2.3 switch=y r1=1e-4 x1=1e-4 length=0.001 units=km
new line.SC_5284396 phases=3 bus1=81765715002148.1.2.3 bus2=81765715002148B.1.2.3 switch=y r1=1e-4 x1=1e-4 length=0.001 units=km
new line.SC_5284397 phases=3 bus1=81765695002148.1.2.3 bus2=81765695002148B.1.2.3 switch=y r1=1e-4 x1=1e-4 length=0.001 units=km
new line.SC_5284398 phases=3 bus1=81765665002148.1.2.3 bus2=81765665002148B.1.2.3 switch=y r1=1e-4 x1=1e-4 length=0.001 units=km
new line.SC_5284411 phases=3 bus1=81767115002148.1.2.3 bus2=81767115002148B.1.2.3 switch=y r1=1e-4 x1=1e-4 length=0.001 units=km
new line.SC_5284418 phases=3 bus1=81765045002148.1.2.3 bus2=81765045002148B.1.2.3 switch=y r1=1e-4 x1=1e-4 length=0.001 units=km
new line.SC_5284419 phases=3 bus1=81765025002148.1.2.3 bus2=81765025002148B.1.2.3 switch=y r1=1e-4 x1=1e-4 length=0.001 units=km
new line.SC_5287788 phases=1 bus1=82188015002188.1 bus2=82188015002188B.1 switch=y r1=1e-4 x1=1e-4 length=0.001 units=km
new line.SC_5287790 phases=3 bus1=82185865002188.1.2.3 bus2=82185865002188B.1.2.3 switch=y r1=1e-4 x1=1e-4 length=0.001 units=km
new line.SC_5287791 phases=3 bus1=82182275002188.1.2.3 bus2=82182275002188B.1.2.3 switch=y r1=1e-4 x1=1e-4 length=0.001 units=km
new line.SC_5287792 phases=3 bus1=82182725002211.1.2.3 bus2=82182725002211B.1.2.3 switch=y r1=1e-4 x1=1e-4 length=0.001 units=km
new line.SC_5287793 phases=3 bus1=82208865002188.1.2.3 bus2=82208865002188B.1.2.3 switch=y r1=1e-4 x1=1e-4 length=0.001 units=km
new line.SC_5287794 phases=3 bus1=82207695002188.1.2.3 bus2=82207695002188B.1.2.3 switch=y r1=1e-4 x1=1e-4 length=0.001 units=km
new line.SC_5287795 phases=3 bus1=82208965002188.1.2.3 bus2=82208965002188B.1.2.3 switch=y r1=1e-4 x1=1e-4 length=0.001 units=km
new line.SC_5287796 phases=3 bus1=82209015002188.1.2.3 bus2=82209015002188B.1.2.3 switch=y r1=1e-4 x1=1e-4 length=0.001 units=km
new line.SC_5287798 phases=3 bus1=82209235002188.1.2.3 bus2=82209235002188B.1.2.3 switch=y r1=1e-4 x1=1e-4 length=0.001 units=km
new line.SC_5287799 phases=3 bus1=82206765002188.1.2.3 bus2=82206765002188B.1.2.3 switch=y r1=1e-4 x1=1e-4 length=0.001 units=km
new line.SC_5287801 phases=3 bus1=80471845002188.1.2.3 bus2=80471845002188B.1.2.3 switch=y r1=1e-4 x1=1e-4 length=0.001 units=km
new line.SC_5287804 phases=3 bus1=82187015002188.1.2.3 bus2=82187015002188B.1.2.3 switch=y r1=1e-4 x1=1e-4 length=0.001 units=km
new line.SC_5287805 phases=3 bus1=82182675002188.1.2.3 bus2=82182675002188B.1.2.3 switch=y r1=1e-4 x1=1e-4 length=0.001 units=km
new line.SC_5287806 phases=3 bus1=82199005002211.1.2.3 bus2=82199005002211B.1.2.3 switch=y r1=1e-4 x1=1e-4 length=0.001 units=km
new line.SC_5287943 phases=3 bus1=82190765002188.1.2.3 bus2=82190765002188B.1.2.3 switch=y r1=1e-4 x1=1e-4 length=0.001 units=km
new line.SC_5287945 phases=3 bus1=82194925002188.1.2.3 bus2=82194925002188B.1.2.3 switch=y r1=1e-4 x1=1e-4 length=0.001 units=km
new line.SC_5287946 phases=3 bus1=82194305002188.1.2.3 bus2=82194305002188B.1.2.3 switch=y r1=1e-4 x1=1e-4 length=0.001 units=km
new line.SC_5287948 phases=3 bus1=82194355002188.1.2.3 bus2=82194355002188B.1.2.3 switch=y r1=1e-4 x1=1e-4 length=0.001 units=km
new line.SC_5287949 phases=1 bus1=82194445002188.3 bus2=82194445002188B.3 switch=y r1=1e-4 x1=1e-4 length=0.001 units=km
new line.SC_5287950 phases=1 bus1=82195625002188.3 bus2=82195625002188B.3 switch=y r1=1e-4 x1=1e-4 length=0.001 units=km
new line.SC_5287951 phases=1 bus1=82195815002188.3 bus2=82195815002188B.3 switch=y r1=1e-4 x1=1e-4 length=0.001 units=km
new line.SC_5287954 phases=3 bus1=82194895002188.1.2.3 bus2=82194895002188B.1.2.3 switch=y r1=1e-4 x1=1e-4 length=0.001 units=km
new line.SC_5287955 phases=1 bus1=82194065002188.3 bus2=82194065002188B.3 switch=y r1=1e-4 x1=1e-4 length=0.001 units=km
new line.SC_5287957 phases=1 bus1=82193785002188.3 bus2=82193785002188B.3 switch=y r1=1e-4 x1=1e-4 length=0.001 units=km
new line.SC_5287958 phases=3 bus1=82194905002188.1.2.3 bus2=82194905002188B.1.2.3 switch=y r1=1e-4 x1=1e-4 length=0.001 units=km
new line.SC_5287959 phases=1 bus1=82188785002188.3 bus2=82188785002188B.3 switch=y r1=1e-4 x1=1e-4 length=0.001 units=km
new line.SC_5287961 phases=1 bus1=82192855002188.3 bus2=82192855002188B.3 switch=y r1=1e-4 x1=1e-4 length=0.001 units=km
new line.SC_5288027 phases=1 bus1=82192905002188.3 bus2=82192905002188B.3 switch=y r1=1e-4 x1=1e-4 length=0.001 units=km
new line.SC_5288028 phases=3 bus1=82187125002188.1.2.3 bus2=82187125002188B.1.2.3 switch=y r1=1e-4 x1=1e-4 length=0.001 units=km
new line.SC_5288030 phases=1 bus1=82187435002188.1 bus2=82187435002188B.1 switch=y r1=1e-4 x1=1e-4 length=0.001 units=km
new line.SC_5288032 phases=3 bus1=82187565002188.1.2.3 bus2=82187565002188B.1.2.3 switch=y r1=1e-4 x1=1e-4 length=0.001 units=km
new line.SC_5288033 phases=1 bus1=82187605002188.1 bus2=82187605002188B.1 switch=y r1=1e-4 x1=1e-4 length=0.001 units=km
new line.SC_5288037 phases=1 bus1=82188485002188.3 bus2=82188485002188B.3 switch=y r1=1e-4 x1=1e-4 length=0.001 units=km
new line.SC_5288083 phases=1 bus1=82191975002188.3 bus2=82191975002188B.3 switch=y r1=1e-4 x1=1e-4 length=0.001 units=km
new line.SC_5288084 phases=1 bus1=82191995002188.3 bus2=82191995002188B.3 switch=y r1=1e-4 x1=1e-4 length=0.001 units=km
new line.SC_5288085 phases=1 bus1=82192215002188.3 bus2=82192215002188B.3 switch=y r1=1e-4 x1=1e-4 length=0.001 units=km
new line.SC_5288086 phases=1 bus1=82196795002188.3 bus2=82196795002188B.3 switch=y r1=1e-4 x1=1e-4 length=0.001 units=km
new line.SC_5288087 phases=1 bus1=82196805002188.3 bus2=82196805002188B.3 switch=y r1=1e-4 x1=1e-4 length=0.001 units=km
new line.SC_5288089 phases=1 bus1=82191405002188.3 bus2=82191405002188B.3 switch=y r1=1e-4 x1=1e-4 length=0.001 units=km
new line.SC_5288090 phases=1 bus1=82191485002188.3 bus2=82191485002188B.3 switch=y r1=1e-4 x1=1e-4 length=0.001 units=km
new line.SC_5288092 phases=1 bus1=82193125002188.3 bus2=82193125002188B.3 switch=y r1=1e-4 x1=1e-4 length=0.001 units=km
new line.SC_5288093 phases=1 bus1=82192975002188.3 bus2=82192975002188B.3 switch=y r1=1e-4 x1=1e-4 length=0.001 units=km
new line.SC_5288095 phases=1 bus1=82193505002188.3 bus2=82193505002188B.3 switch=y r1=1e-4 x1=1e-4 length=0.001 units=km
new line.SC_5288096 phases=1 bus1=82234315002188.3 bus2=82234315002188B.3 switch=y r1=1e-4 x1=1e-4 length=0.001 units=km
new line.SC_5288097 phases=1 bus1=82193875002188.3 bus2=82193875002188B.3 switch=y r1=1e-4 x1=1e-4 length=0.001 units=km
new line.SC_5288098 phases=1 bus1=82193945002188.3 bus2=82193945002188B.3 switch=y r1=1e-4 x1=1e-4 length=0.001 units=km
new line.SC_5288099 phases=1 bus1=82193515002188.3 bus2=82193515002188B.3 switch=y r1=1e-4 x1=1e-4 length=0.001 units=km
new line.SC_5288101 phases=1 bus1=82197015002188.3 bus2=82197015002188B.3 switch=y r1=1e-4 x1=1e-4 length=0.001 units=km
new line.SC_5288103 phases=1 bus1=82191745002188.3 bus2=82191745002188B.3 switch=y r1=1e-4 x1=1e-4 length=0.001 units=km
new line.SC_5288104 phases=1 bus1=82191805002188.3 bus2=82191805002188B.3 switch=y r1=1e-4 x1=1e-4 length=0.001 units=km
new line.SC_5288105 phases=1 bus1=82198295002188.3 bus2=82198295002188B.3 switch=y r1=1e-4 x1=1e-4 length=0.001 units=km
new line.SC_5288106 phases=1 bus1=82198115002188.3 bus2=82198115002188B.3 switch=y r1=1e-4 x1=1e-4 length=0.001 units=km
new line.SC_5288107 phases=1 bus1=82198155002188.3 bus2=82198155002188B.3 switch=y r1=1e-4 x1=1e-4 length=0.001 units=km
new line.SC_5288108 phases=1 bus1=82198195002188.3 bus2=82198195002188B.3 switch=y r1=1e-4 x1=1e-4 length=0.001 units=km
new line.SC_5288109 phases=1 bus1=82189655002188.1 bus2=82189655002188B.1 switch=y r1=1e-4 x1=1e-4 length=0.001 units=km
new line.SC_5288110 phases=1 bus1=82187965002188.1 bus2=82187965002188B.1 switch=y r1=1e-4 x1=1e-4 length=0.001 units=km
new line.SC_5288111 phases=1 bus1=82186425002188.1 bus2=82186425002188B.1 switch=y r1=1e-4 x1=1e-4 length=0.001 units=km
new line.SC_5288112 phases=1 bus1=82189035002188.1 bus2=82189035002188B.1 switch=y r1=1e-4 x1=1e-4 length=0.001 units=km
new line.SC_5288125 phases=1 bus1=82189125002188.1 bus2=82189125002188B.1 switch=y r1=1e-4 x1=1e-4 length=0.001 units=km
new line.SC_5288126 phases=1 bus1=82194565002188.3 bus2=82194565002188B.3 switch=y r1=1e-4 x1=1e-4 length=0.001 units=km
new line.SC_5288127 phases=1 bus1=82194575002188.3 bus2=82194575002188B.3 switch=y r1=1e-4 x1=1e-4 length=0.001 units=km
new line.SC_5288128 phases=3 bus1=86397995002188.1.2.3 bus2=86397995002188B.1.2.3 switch=y r1=1e-4 x1=1e-4 length=0.001 units=km
new line.SC_5288129 phases=1 bus1=82187765002188.1 bus2=82187765002188B.1 switch=y r1=1e-4 x1=1e-4 length=0.001 units=km
new line.SC_5288130 phases=3 bus1=82184985002188.1.2.3 bus2=82184985002188B.1.2.3 switch=y r1=1e-4 x1=1e-4 length=0.001 units=km
new line.SC_5288131 phases=3 bus1=82184665002188.1.2.3 bus2=82184665002188B.1.2.3 switch=y r1=1e-4 x1=1e-4 length=0.001 units=km
new line.SC_5288132 phases=3 bus1=82184855002188.1.2.3 bus2=82184855002188B.1.2.3 switch=y r1=1e-4 x1=1e-4 length=0.001 units=km
new line.SC_5288133 phases=3 bus1=82182245002188.1.2.3 bus2=82182245002188B.1.2.3 switch=y r1=1e-4 x1=1e-4 length=0.001 units=km
new line.SC_5288135 phases=3 bus1=82202515002188.1.2.3 bus2=82202515002188B.1.2.3 switch=y r1=1e-4 x1=1e-4 length=0.001 units=km
new line.SC_5288138 phases=1 bus1=82200585002188.2 bus2=82200585002188B.2 switch=y r1=1e-4 x1=1e-4 length=0.001 units=km
new line.SC_5288143 phases=3 bus1=82204825002188.1.2.3 bus2=82204825002188B.1.2.3 switch=y r1=1e-4 x1=1e-4 length=0.001 units=km
new line.SC_5288144 phases=3 bus1=94114865002188.1.2.3 bus2=94114865002188B.1.2.3 switch=y r1=1e-4 x1=1e-4 length=0.001 units=km
new line.SC_5288146 phases=3 bus1=82210005002188.1.2.3 bus2=82210005002188B.1.2.3 switch=y r1=1e-4 x1=1e-4 length=0.001 units=km
new line.SC_5288147 phases=3 bus1=82211415002188.1.2.3 bus2=82211415002188B.1.2.3 switch=y r1=1e-4 x1=1e-4 length=0.001 units=km
new line.SC_5288149 phases=3 bus1=82198835002188.1.2.3 bus2=82198835002188B.1.2.3 switch=y r1=1e-4 x1=1e-4 length=0.001 units=km
new line.SC_5288150 phases=3 bus1=82198825002188.1.2.3 bus2=82198825002188B.1.2.3 switch=y r1=1e-4 x1=1e-4 length=0.001 units=km
new line.SC_5288151 phases=3 bus1=82201165002188.1.2.3 bus2=82201165002188B.1.2.3 switch=y r1=1e-4 x1=1e-4 length=0.001 units=km
new line.SC_5288152 phases=3 bus1=82202135002188.1.2.3 bus2=82202135002188B.1.2.3 switch=y r1=1e-4 x1=1e-4 length=0.001 units=km
new line.SC_5288153 phases=3 bus1=82202145002188.1.2.3 bus2=82202145002188B.1.2.3 switch=y r1=1e-4 x1=1e-4 length=0.001 units=km
new line.SC_5288154 phases=3 bus1=82202735002188.1.2.3 bus2=82202735002188B.1.2.3 switch=y r1=1e-4 x1=1e-4 length=0.001 units=km
new line.SC_5288155 phases=3 bus1=82202775002188.1.2.3 bus2=82202775002188B.1.2.3 switch=y r1=1e-4 x1=1e-4 length=0.001 units=km
new line.SC_5288157 phases=3 bus1=82204005002188.1.2.3 bus2=82204005002188B.1.2.3 switch=y r1=1e-4 x1=1e-4 length=0.001 units=km
new line.SC_5288158 phases=3 bus1=82209445002188.1.2.3 bus2=82209445002188B.1.2.3 switch=y r1=1e-4 x1=1e-4 length=0.001 units=km
new line.SC_5288159 phases=3 bus1=82211875002188.1.2.3 bus2=82211875002188B.1.2.3 switch=y r1=1e-4 x1=1e-4 length=0.001 units=km
new line.SC_5288160 phases=1 bus1=82198055002188.3 bus2=82198055002188B.3 switch=y r1=1e-4 x1=1e-4 length=0.001 units=km
new line.SC_5288162 phases=1 bus1=82220515002188.2 bus2=82220515002188B.2 switch=y r1=1e-4 x1=1e-4 length=0.001 units=km
new line.SC_5288174 phases=3 bus1=82219855002188.1.2.3 bus2=82219855002188B.1.2.3 switch=y r1=1e-4 x1=1e-4 length=0.001 units=km
new line.SC_5288177 phases=1 bus1=82219545002188.2 bus2=82219545002188B.2 switch=y r1=1e-4 x1=1e-4 length=0.001 units=km
new line.SC_5288178 phases=1 bus1=82220415002188.2 bus2=82220415002188B.2 switch=y r1=1e-4 x1=1e-4 length=0.001 units=km
new line.SC_5288180 phases=1 bus1=82220665002188.2 bus2=82220665002188B.2 switch=y r1=1e-4 x1=1e-4 length=0.001 units=km
new line.SC_5288201 phases=1 bus1=82194125002188.3 bus2=82194125002188B.3 switch=y r1=1e-4 x1=1e-4 length=0.001 units=km
new line.SC_5288207 phases=1 bus1=82190825002188.3 bus2=82190825002188B.3 switch=y r1=1e-4 x1=1e-4 length=0.001 units=km
new line.SC_5288209 phases=1 bus1=82197995002188.3 bus2=82197995002188B.3 switch=y r1=1e-4 x1=1e-4 length=0.001 units=km
new line.SC_5288213 phases=1 bus1=82188585002188.3 bus2=82188585002188B.3 switch=y r1=1e-4 x1=1e-4 length=0.001 units=km
new line.SC_5288224 phases=3 bus1=82218685002188.1.2.3 bus2=82218685002188B.1.2.3 switch=y r1=1e-4 x1=1e-4 length=0.001 units=km
new line.SC_5288225 phases=3 bus1=82219085002188.1.2.3 bus2=82219085002188B.1.2.3 switch=y r1=1e-4 x1=1e-4 length=0.001 units=km
new line.SC_5288227 phases=3 bus1=82218695002188.1.2.3 bus2=82218695002188B.1.2.3 switch=y r1=1e-4 x1=1e-4 length=0.001 units=km
new line.SC_5288845 phases=3 bus1=82280405002413.1.2.3 bus2=82280405002413B.1.2.3 switch=y r1=1e-4 x1=1e-4 length=0.001 units=km
new line.SC_5288879 phases=3 bus1=82271515002210.1.2.3 bus2=82271515002210B.1.2.3 switch=y r1=1e-4 x1=1e-4 length=0.001 units=km
new line.SC_5288882 phases=3 bus1=82276975002413.1.2.3 bus2=82276975002413B.1.2.3 switch=y r1=1e-4 x1=1e-4 length=0.001 units=km
new line.SC_5288883 phases=3 bus1=82279745002413.1.2.3 bus2=82279745002413B.1.2.3 switch=y r1=1e-4 x1=1e-4 length=0.001 units=km
...
open line.SC_5545922 1
new line.SC_5546210 phases=3 bus1=80520155007259.1.2.3 bus2=80520155007259B.1.2.3 switch=y r1=1e-4 x1=1e-4 length=0.001 units=km
open line.SC_5546210 1
new line.SC_5546211 phases=3 bus1=93386435001998.1.2.3 bus2=93386435001998B.1.2.3 switch=y r1=1e-4 x1=1e-4 length=0.001 units=km
new line.SC_5546212 phases=3 bus1=89985535001998.1.2.3 bus2=89985535001998B.1.2.3 switch=y r1=1e-4 x1=1e-4 length=0.001 units=km
open line.SC_5546212 1
new line.SC_5546213 phases=3 bus1=93386735007259.1.2.3 bus2=93386735007259B.1.2.3 switch=y r1=1e-4 x1=1e-4 length=0.001 units=km
new line.SC_5546319 phases=3 bus1=93293375002211.1.2.3 bus2=93293375002211B.1.2.3 switch=y r1=1e-4 x1=1e-4 length=0.001 units=km
new line.SC_5546320 phases=3 bus1=89991435002211.1.2.3 bus2=89991435002211B.1.2.3 switch=y r1=1e-4 x1=1e-4 length=0.001 units=km
new line.SC_5546321 phases=3 bus1=89991445002211.1.2.3 bus2=89991445002211B.1.2.3 switch=y r1=1e-4 x1=1e-4 length=0.001 units=km
open line.SC_5546321 1
new line.SC_5546322 phases=3 bus1=82299715002211.1.2.3 bus2=82299715002211B.1.2.3 switch=y r1=1e-4 x1=1e-4 length=0.001 units=km
new line.SC_5546323 phases=3 bus1=93776075002414.1.2.3 bus2=93776075002414B.1.2.3 switch=y r1=1e-4 x1=1e-4 length=0.001 units=km
new line.SC_5546325 phases=3 bus1=93285875002414.1.2.3 bus2=93285875002414B.1.2.3 switch=y r1=1e-4 x1=1e-4 length=0.001 units=km
open line.SC_5546325 1
new line.SC_5547227 phases=3 bus1=82875155001990.1.2.3 bus2=82875155001990B.1.2.3 switch=y r1=1e-4 x1=1e-4 length=0.001 units=km
new line.SC_5547228 phases=3 bus1=90008405001990.1.2.3 bus2=90008405001990B.1.2.3 switch=y r1=1e-4 x1=1e-4 length=0.001 units=km
open line.SC_5547228 1
new line.SC_5547229 phases=3 bus1=90008385001990.1.2.3 bus2=90008385001990B.1.2.3 switch=y r1=1e-4 x1=1e-4 length=0.001 units=km
new line.SC_5547230 phases=3 bus1=90008375001990.1.2.3 bus2=90008375001990B.1.2.3 switch=y r1=1e-4 x1=1e-4 length=0.001 units=km
new line.SC_5547475 phases=3 bus1=80451095002412.1.2.3 bus2=80451095002412B.1.2.3 switch=y r1=1e-4 x1=1e-4 length=0.001 units=km
new line.SC_5547517 phases=3 bus1=90017025002409.1.2.3 bus2=90017025002409B.1.2.3 switch=y r1=1e-4 x1=1e-4 length=0.001 units=km
new line.SC_5547518 phases=3 bus1=93275205002409.1.2.3 bus2=93275205002409B.1.2.3 switch=y r1=1e-4 x1=1e-4 length=0.001 units=km
new line.SC_5547520 phases=3 bus1=90017035002409.1.2.3 bus2=90017035002409B.1.2.3 switch=y r1=1e-4 x1=1e-4 length=0.001 units=km
new line.SC_5547521 phases=3 bus1=90017045002409.1.2.3 bus2=90017045002409B.1.2.3 switch=y r1=1e-4 x1=1e-4 length=0.001 units=km
open line.SC_5547521 1
new line.SC_5547567 phases=3 bus1=90018085002211.1.2.3 bus2=90018085002211B.1.2.3 switch=y r1=1e-4 x1=1e-4 length=0.001 units=km
open line.SC_5547567 1
new line.SC_5547568 phases=3 bus1=90018035002211.1.2.3 bus2=90018035002211B.1.2.3 switch=y r1=1e-4 x1=1e-4 length=0.001 units=km
open line.SC_5547568 1
new line.SC_5547569 phases=3 bus1=90018075002211.1.2.3 bus2=90018075002211B.1.2.3 switch=y r1=1e-4 x1=1e-4 length=0.001 units=km
new line.SC_5547570 phases=3 bus1=90018055002409.1.2.3 bus2=90018055002409B.1.2.3 switch=y r1=1e-4 x1=1e-4 length=0.001 units=km
new line.SC_5547737 phases=3 bus1=93298445001990.1.2.3 bus2=93298445001990B.1.2.3 switch=y r1=1e-4 x1=1e-4 length=0.001 units=km
open line.SC_5547737 1
new line.SC_5547739 phases=3 bus1=93298205001990.1.2.3 bus2=93298205001990B.1.2.3 switch=y r1=1e-4 x1=1e-4 length=0.001 units=km
new line.SC_5548240 phases=3 bus1=82184375002188.1.2.3 bus2=82184375002188B.1.2.3 switch=y r1=1e-4 x1=1e-4 length=0.001 units=km
new line.SC_5548241 phases=3 bus1=93776465002188.1.2.3 bus2=93776465002188B.1.2.3 switch=y r1=1e-4 x1=1e-4 length=0.001 units=km
new line.SC_5548242 phases=3 bus1=93776095002188.1.2.3 bus2=93776095002188B.1.2.3 switch=y r1=1e-4 x1=1e-4 length=0.001 units=km
new line.SC_5548243 phases=3 bus1=93291155002188.1.2.3 bus2=93291155002188B.1.2.3 switch=y r1=1e-4 x1=1e-4 length=0.001 units=km
open line.SC_5548243 1
new line.SC_5548259 phases=3 bus1=82279875002413.1.2.3 bus2=82279875002413B.1.2.3 switch=y r1=1e-4 x1=1e-4 length=0.001 units=km
new line.SC_5548260 phases=3 bus1=93776355002413.1.2.3 bus2=93776355002413B.1.2.3 switch=y r1=1e-4 x1=1e-4 length=0.001 units=km
new line.SC_5548261 phases=3 bus1=93776365002413.1.2.3 bus2=93776365002413B.1.2.3 switch=y r1=1e-4 x1=1e-4 length=0.001 units=km
new line.SC_5548267 phases=3 bus1=93303535002412.1.2.3 bus2=93303535002412B.1.2.3 switch=y r1=1e-4 x1=1e-4 length=0.001 units=km
new line.SC_5549197 phases=3 bus1=90055665001990.1.2.3 bus2=90055665001990B.1.2.3 switch=y r1=1e-4 x1=1e-4 length=0.001 units=km
new line.SC_5549199 phases=3 bus1=90055675001990.1.2.3 bus2=90055675001990B.1.2.3 switch=y r1=1e-4 x1=1e-4 length=0.001 units=km
open line.SC_5549199 1
new line.SC_5549367 phases=3 bus1=90064835002412.1.2.3 bus2=90064835002412B.1.2.3 switch=y r1=1e-4 x1=1e-4 length=0.001 units=km
open line.SC_5549367 1
new line.SC_5549370 phases=3 bus1=93508195002412.1.2.3 bus2=93508195002412B.1.2.3 switch=y r1=1e-4 x1=1e-4 length=0.001 units=km
new line.SC_5549399 phases=3 bus1=94191425002412.1.2.3 bus2=94191425002412B.1.2.3 switch=y r1=1e-4 x1=1e-4 length=0.001 units=km
new line.SC_5549400 phases=3 bus1=94191195002412.1.2.3 bus2=94191195002412B.1.2.3 switch=y r1=1e-4 x1=1e-4 length=0.001 units=km
open line.SC_5549400 1
new line.SC_5549401 phases=3 bus1=94191435002412.1.2.3 bus2=94191435002412B.1.2.3 switch=y r1=1e-4 x1=1e-4 length=0.001 units=km
...